sim_num_insn                 237058 # total number of instructions executed after analysis started
sim_num_refs                      1 # total number of loads and stores executed
sim_num_loads                     1 # total number of read memory accesses
sim_num_flash_loads               1 # total number of Flash read memory accesses
sim_num_sram_loads                0 # total number of SRAM read memory accesses
sim_num_stores                    0 # total number of write memory accesses
sim_total_energy        286937.2188 # total energy consumption (nJ)
sim_elapsed_time                  1 # total simulation time in seconds
sim_inst_rate           237058.0000 # simulation speed (in insts/sec)
