sim_num_insn                 380755 # total number of instructions executed after analysis started
sim_num_refs                  75367 # total number of loads and stores executed
sim_num_loads                 61411 # total number of read memory accesses
sim_num_flash_loads            2001 # total number of Flash read memory accesses
sim_num_sram_loads            59410 # total number of SRAM read memory accesses
sim_num_stores                41950 # total number of write memory accesses
sim_total_energy       1076878.7500 # total energy consumption (nJ)
sim_elapsed_time                  1 # total simulation time in seconds
sim_inst_rate           380755.0000 # simulation speed (in insts/sec)
